    12
        -15.89465639
C          -0.18382231688284    0.68187198456199   -0.09190786191430
C           1.19655024564903    0.68184168875351    0.05603266082300
C           1.88690700491470    1.88422859312123    0.12936544066820
C           1.19681906863100    3.08657937700313    0.05460884445986
C          -0.18367078673874    3.08660697609089   -0.09350376597650
C          -0.87396732590572    1.88428087474940   -0.16676377555106
H          -0.72330591911375   -0.25726198534049   -0.14908678242777
H           1.73586019516173   -0.25730455894580    0.11439605347790
H           2.96526873360760    1.88413152750620    0.24505991469832
H           1.73603748968144    4.02585086129549    0.11187785593982
H          -0.72272926519632    4.02589814353377   -0.15192227408779
H          -1.95232868380814    1.88422890767066   -0.28246183010967
