%chk=01_hfsto3g_transb2ene.chk
# freq rb3lyp/sto-3g 

Title Card Required

0 1
 C                  1.11543433   -1.49416900    0.00000000
 H                  2.11431819   -1.04103847    0.00000000
 H                  1.07667953   -2.58954578    0.00000000
 C                 -0.00005023   -0.74376200    0.00000000
 H                 -0.98864775   -1.22679211    0.00000000
 C                  0.00000000    0.74369974    0.00000000
 H                  0.98863835    1.22664531    0.00000000
 C                 -1.11540787    1.49421484    0.00000000
 H                 -2.11435668    1.04123885    0.00000000
 H                 -1.07648898    2.58959070    0.00000000
 
 
