%chk=t_1lk.chk
# opt rb3lyp/sto-3g geom=connectivity

Title Card Required

0 1
 C                 -0.00007522   -1.49413150   -1.11550922
 H                 -0.00005999   -1.04096693   -2.11437799
 H                 -0.00011204   -2.58950980   -1.07679204
 C                 -0.00005000   -0.74376200    0.00000000
 H                 -0.00006624   -1.22682523    0.98858176
 C                  0.00000000    0.74370000    0.00000000
 H                  0.00001623    1.22667823    0.98862177
 C                  0.00002523    1.49417751   -1.11543323
 H                  0.00001000    1.04116793   -2.11436700
 H                  0.00006205    2.58955481   -1.07655105

 1 2 1.0 3 1.0 4 2.0
 2
 3
 4 5 1.0 6 1.0
 5
 6 7 1.0 8 2.0
 7
 8 9 1.0 10 1.0
 9
 10

