%chk=04_hfsto3g_cisb2ene_s1.chk
#p td=(nstates=2,root=1) rb3lyp/sto-3g geom=connectivity nosym

Title Card Required

0 1
 C                 -0.00007400   -1.47403200   -1.15362000
 H                 -0.00005600   -0.96379000   -2.12611400
 H                 -0.00011200   -2.57124100   -1.14440400
 C                 -0.00004900   -0.71696700    0.07461900
 H                 -0.00006800   -1.25701600    1.03132800
 C                 -0.00000100    0.71692300    0.07467500
 H                  0.00001800    1.25689700    1.03142600
 C                  0.00002400    1.47408700   -1.15350200
 H                  0.00000600    0.96392600   -2.12603900
 H                  0.00006200    2.57129500   -1.14419500

 1 2 1.0 3 1.0 4 1.5
 2
 3
 4 5 1.0 6 1.5
 5
 6 7 1.0 8 1.5
 7
 8 9 1.0 10 1.0
 9
 10

