    34
        -58.61447721
C          -1.29232871110513    0.64505523654381   -2.12482854034147
C          -1.69697827873772    0.49908914886866   -0.79469627381168
C          -1.68845596198078   -0.75193983175204   -0.20420189670947
C          -1.27221611841038   -1.87438159171892   -0.92015029339597
C          -0.90752846077347   -1.72936280128142   -2.25638433135524
C          -0.91571679054787   -0.48274262498133   -2.85869606319740
H          -2.00272662671385    1.37000785369721   -0.22698979316141
H          -1.99405266573187   -0.85522609286113    0.83172094906860
H          -0.59387083631050   -2.59708517523046   -2.82597725578434
H          -0.61021695741779   -0.37414914118614   -3.89270070870280
C          -1.17892332659047   -3.21965599990839   -0.23892836919418
H          -2.17093803263505   -3.54558262809708    0.09255717074764
H          -0.77237983908752   -3.97537591353907   -0.91477961476206
N          -0.33334722472571   -3.18056844820785    0.94448943441881
H          -0.56322170916624   -2.43683529547362    1.59368468014649
S           1.33031240617548   -3.10607605483200    0.65125196876392
O           1.92416420866939   -3.07262244311597    1.96105277604371
O           1.62895412312811   -4.18201297860055   -0.25750151486196
C           1.71443555789305   -1.57759170339365   -0.16423134603126
C           1.55518077416914   -0.38570142252490    0.52619800582310
C           2.16103406181400   -1.60012365763525   -1.47465540937868
C           1.82511414238947    0.80759521220894   -0.12303360335257
H           1.22221579146194   -0.39424429637025    1.55690566604471
C           2.43507364027601   -0.39885121943853   -2.11169013907119
H           2.29131002636806   -2.54479089549801   -1.98749417146175
C           2.25798563142790    0.81380649660090   -1.44988579197441
H           1.69443955484713    1.74557678117547    0.40479005428390
H           2.78268709905660   -0.40784807197221   -3.13858858006368
C          -1.22071256719235    1.93886087238309   -2.71432605156317
N          -1.12446383438169    2.98680769348156   -3.18020274028158
C           2.50990526975314    2.11753111104682   -2.15116971746915
H           1.56589355819579    2.64483138054481   -2.30516088431365
H           3.15682033721353    2.75689764731146   -1.54946354815531
H           2.97717458867084    1.95625855375540   -3.12201881694589
